Circuit: * Z:\home\spock\HiG\EE413A-mätteknik\lab\lab-01\sim\1_Ic-Uce-characteristics_nolabels2.asc

Direct Newton iteration for .op point succeeded.
.step uce=0
.step uce=1
.step uce=2
.step uce=3
.step uce=4
.step uce=5
.step uce=6
.step uce=7
.step uce=8
.step uce=9
.step uce=10

Date: Fri Nov 28 15:26:45 2014
Total elapsed time: 1.362 seconds.

tnom = 27
temp = 27
method = modified trap
totiter = 2093
traniter = 2082
tranpoints = 1042
accept = 1042
rejected = 0
matrix size = 8
fillins = 0
solver = Normal
Matrix Compiler1: 460 bytes object code size  1.4/1.3/[1.2]
Matrix Compiler2: 608 bytes object code size  1.3/1.4/[1.3]


