Circuit: * Z:\home\spock\HiG\EE413A-mätteknik\lab\lab-01\sim\6_amplifier-av.asc

Direct Newton iteration for .op point succeeded.
.step rc=2200
.step rc=3300
.step rc=4700
.step rc=5100
.step rc=6800
.step rc=8200
.step rc=10000
.step rc=12000
.step rc=15000
.step rc=22000

Date: Fri Nov 28 22:29:53 2014
Total elapsed time: 1.329 seconds.

tnom = 27
temp = 27
method = modified trap
totiter = 2109
traniter = 2105
tranpoints = 1046
accept = 1045
rejected = 1
matrix size = 11
fillins = 0
solver = Normal
Matrix Compiler1: 610 bytes object code size  1.5/1.4/[1.3]
Matrix Compiler2: 835 bytes object code size  1.4/6.4/[1.3]


