Circuit: * Z:\home\spock\HiG\EE413A-mätteknik\lab\lab-01\sim\6_amplifier-av.asc

Direct Newton iteration for .op point succeeded.

Date: Fri Nov 28 23:31:36 2014
Total elapsed time: 0.034 seconds.

tnom = 27
temp = 27
method = trap
totiter = 9
traniter = 0
tranpoints = 0
accept = 0
rejected = 0
matrix size = 11
fillins = 0
solver = Normal
Matrix Compiler1:      33 opcodes
Matrix Compiler2: 847 bytes object code size

